192   

Si 2.35696079 1.48988589 1.15281869
Si 9.59434144 5.63229668 5.54262383
Si 10.58838310 12.53023698 11.86189184
Si 5.31318550 12.65782146 6.33197385
Si 11.90259201 8.32711257 12.12524062
Si 10.92579707 7.51459970 4.14490095
Si 9.03459055 8.51952265 2.79390412
Si 3.14056816 11.71941254 7.42235867
Si 5.24292527 13.92432460 4.22567334
Si 9.15702882 1.78198139 0.77699613
Si 6.04183666 9.80483430 10.94992402
Si 8.82822390 14.64987926 7.99716420
Si 12.21772563 2.10251027 5.15290309
Si 6.71607206 3.08693101 7.45344673
Si 11.86824897 9.54133732 5.61404500
Si 2.72906191 2.18176619 9.09477570
Si 10.05053636 6.69146165 11.76341734
Si 1.91061961 9.77883754 1.18144160
Si 10.20599032 13.46779894 3.61392953
Si 7.52526837 11.30088541 6.12373420
Si 13.04824089 8.51710756 14.29014137
Si 7.25411374 2.04369915 2.37435741
Si 8.88340796 2.45022656 8.67644904
Si 5.92175666 14.01412981 8.22967874
Si 1.22132681 6.05351536 1.39293475
Si 5.49340272 8.46064959 14.75723118
Si 4.74787227 8.93278165 3.86901714
Si 13.26562705 12.88902892 7.95435583
Si 1.50331780 12.22037506 1.85807814
Si 12.07829128 8.80848667 8.19044264
Si 14.24923276 12.32916735 3.40337417
Si 2.08901575 13.56227633 11.64338690
Si 4.44983463 10.02953040 1.69249904
Si 4.76306186 1.37078052 7.58000557
Si 5.81952704 12.86733220 14.01346533
Si 8.85012855 6.39691425 1.37449953
Si 6.19937805 6.23312156 1.08367388
Si 12.71870729 3.36508733 2.98321335
Si 0.42257815 11.60884402 11.54033671
Si 13.22285508 3.50638907 13.42938321
Si 1.74812343 9.77785925 6.52679962
Si 2.17209020 9.83937784 11.51025791
Si 2.63632159 6.11132732 5.69652536
Si 1.71775799 1.03768253 5.11639465
Si 13.35087300 0.58049637 9.01341319
Si 8.62433028 12.29036075 1.90591056
Si 7.15504319 8.94270591 6.94963342
Si 3.49677454 5.02223089 3.64023157
Si 2.52247640 6.01555047 12.04656531
Si 0.67088235 8.23284858 2.63081899
Si 8.78895431 2.97598555 11.23970605
Si 2.43840258 8.38196040 4.61897117
Si 6.55571926 4.16373845 12.00746411
Si 8.24010836 9.52573464 9.33430489
Si 1.20854938 7.56371848 10.67159941
Si 5.61103501 6.40214538 3.56772527
Si 6.36830644 14.34180532 12.13156820
Si 13.01835865 4.46969079 9.48173695
Si 3.39012868 3.10921744 14.19853980
Si 12.89523811 14.22603187 14.48017708
Si 4.28111538 1.33285140 5.07837955
Si 10.00899466 10.28735104 1.21347387
Si 5.77456352 5.46124423 8.13641350
Si 0.20767401 5.47337742 5.96065237
Li 14.57661080 7.84009050 7.51328812
Li 7.97790666 4.72831727 3.09729132
Li 8.08486433 5.98448370 13.50894587
Li 11.50058907 11.27986480 3.47403036
Li 7.88536961 7.62381547 4.89217135
Li 9.39857592 9.94770564 4.97832745
Li 14.50785480 -0.20247149 12.56413405
Li 5.35406989 7.12139885 6.19553494
Li 5.57029407 3.54635690 3.81847575
Li 6.98624216 10.58707411 13.46514443
Li 3.58239895 13.15481724 9.73401950
Li 5.78452754 1.92699697 13.47646163
Li 13.75261078 7.54949345 4.93324836
Li 1.02711194 12.60458577 9.04163878
Li 6.94149285 5.21748651 5.55101204
Li 12.76129920 7.87918978 2.20360854
Li 0.70890278 14.44634031 0.34977261
Li 13.27723723 5.91482107 0.22140015
Li 10.33720061 4.50453795 13.12256347
Li 13.21126471 1.71196362 0.90214683
Li 4.26157769 0.96339737 11.21707108
Li 14.23310521 5.49018799 3.37635256
Li 12.39491658 13.27972166 1.98360533
Li 12.67884818 10.92932947 12.42485080
Li 7.29799486 10.74435905 3.68328954
Li 10.24471098 3.71554593 3.92711124
Li 13.25392247 10.80218313 9.53746721
Li 13.34700782 7.10790303 9.83777757
Li 11.36667138 0.29493592 10.87166683
Li 6.90913405 1.11257867 9.82304924
Li 11.32224158 12.37993309 5.96736326
Li 14.10882287 2.10025570 11.22693449
Li 11.60479590 6.07433735 7.58265697
Li 2.43953932 7.53405325 8.34058162
Li 7.64636783 14.43335947 3.67852137
Li 11.60178259 2.37645691 8.81892901
Li 2.83319533 7.37441843 14.34266873
Li 1.40791098 10.75673178 4.05180230
Li 14.35849697 12.14325985 14.26161736
Li 3.24038983 10.08430673 13.77852460
Li 13.75369901 9.89692224 3.70270728
Li 7.93496819 3.34267594 14.03812870
Li 10.80812555 12.50041145 9.10504729
Li 10.51525382 3.49599889 6.67846062
Li 4.68903508 1.47775698 2.55725567
Li 7.97782070 5.32469487 10.28050810
Li 8.60364903 13.03634120 13.75956150
Li 14.96450086 3.18468821 4.57368379
Li 1.68138235 3.36149258 6.74719146
Li 2.15333936 14.52783121 7.75665750
Li 2.88828686 3.31176298 11.51192264
Li 3.69902900 10.50728946 9.72593885
Li 4.80743421 5.66689228 13.49943206
Li 2.69376679 13.43692498 5.43574417
Li 9.74365124 8.07397180 6.67909028
Li 12.79496118 14.47164986 4.43036719
Li 0.48812662 9.73237570 13.77469544
Li 3.53327748 5.15482046 0.91334032
Li 0.56550953 5.49725877 8.71357219
Li 3.74706838 11.81299381 3.71744608
Li 3.18644668 4.81582426 8.39506994
Li 11.19067283 3.39316447 0.66163460
Li 0.94693141 0.37594369 10.02977487
Li 0.16663171 2.83639482 8.84609874
Li 7.01728062 0.46730859 5.99701533
Li 3.52133311 7.45642836 2.09133833
Li 10.08013870 10.59077994 7.51429639
Li 8.59310433 5.37235300 7.79252449
Li 9.88641222 7.28646785 9.13536761
Li 2.95847158 12.75588783 14.13685051
Li 6.72669082 8.26759780 2.53941263
Li 8.24765671 8.63551925 12.05904165
Li 5.67604112 3.49914789 0.91994602
Li 0.38982081 7.07579388 13.56573323
Li 8.68933741 13.95391213 10.72912556
Li 7.39465032 14.39319110 1.02234617
Li 12.21016676 5.17594300 5.02559496
Li 8.48328894 0.88637704 13.00681855
Li 8.24261575 12.15885389 8.74283031
Li 4.30795553 3.88865736 6.14042425
Li 8.31423487 8.43184327 -0.09495390
Li 0.71469372 1.99372178 13.66888305
Li 11.34865691 1.29201721 13.50995135
Li 4.80725602 7.79357188 9.68518613
Li 10.74750389 6.88126373 14.46919120
Li 12.83248871 10.66745365 1.32106773
Li 14.28060573 11.09050608 5.98354318
Li 5.22723888 3.08425059 9.86139499
Li 14.96175546 0.28046570 2.94024309
Li 11.42632949 5.56749775 2.20122109
Li 13.08587526 13.09367721 10.77006348
Li 4.30925256 8.18464739 12.37939224
Li 11.52953478 12.14069129 14.37158565
Li 10.25035534 14.16378199 0.70365764
Li 2.54491264 2.87718456 3.30330288
Li 4.28812311 11.85010204 11.94997210
Li 0.13938417 13.67375971 5.90121751
Li 12.71842590 5.57450081 11.90937154
Li 0.43578112 3.40039879 1.88544318
Li 9.67721530 0.97560601 5.19002667
Li 8.86791526 13.33916419 5.70153194
Li 11.49534332 0.11482542 7.02105313
Li 13.16102624 3.77000179 6.93117264
Li 6.22575330 12.65732196 10.26382460
Li 10.82793837 10.16525415 10.33388843
Li 9.83210819 10.26335904 13.36262508
Li 4.41506582 9.11802061 7.52971025
Li 4.48636368 14.45511543 0.74681616
Li 1.06102761 4.56802963 13.88095544
Li 11.02508207 1.15045536 2.62100430
Li 5.80821843 12.33517160 2.03853608
Li 7.85412744 2.82691261 4.95090445
Li 14.47722293 1.54095757 6.64239472
Li 10.45634682 4.75802096 9.73680323
Li 5.37174044 10.44277353 5.53442026
Li 0.95449171 9.97882204 9.05702540
Li 2.83515164 14.28670504 2.97630051
Li 8.36748559 11.35702146 11.37549416
Li 1.72656394 6.46843831 3.61043673
Li 4.45579293 5.37049606 10.62776283
Li 0.39291709 4.51549345 11.24360146
Li 5.91890441 10.97960700 8.37673776
Li 2.85594973 0.51005930 13.43077579
Li 14.15287307 8.98810333 11.50794192
Li 6.35324534 6.90774314 11.58864983
Li 7.21972488 10.31389374 1.21157827
Li 11.58409149 3.05064517 11.39363284
Li 7.26872106 7.30380648 8.98675509
