304   

Si 1.71442417 1.80169568 0.89413946
Si 10.33987779 4.40771956 4.63352836
Si 11.22609352 16.37877732 13.69963276
Si 3.65158202 14.12610431 8.18665814
Si 15.18685349 8.10249762 15.33247941
Si 14.55295695 7.52653071 5.37013363
Si 12.50937197 11.70888526 4.63532470
Si 1.66767241 12.51033236 11.80847031
Si 5.48736860 13.35493289 3.77183499
Si 10.50954866 2.67468379 0.40803457
Si 7.16256277 13.09872048 14.66938653
Si 9.97257199 0.30534150 9.28637990
Si 13.63479964 2.68664180 6.66000358
Si 6.23830223 5.42491953 8.09906457
Si 16.50971447 10.71298060 8.00819698
Si 3.64200781 3.43446879 11.79178896
Si 11.52096909 8.91770871 8.43061794
Si 3.15401956 11.41896885 16.27477881
Si 14.90093180 15.84063731 4.26325585
Si 10.62943420 12.98689995 11.84643146
Si 15.62193578 11.07310225 1.45385462
Si 6.80790416 1.35432563 6.66823680
Si 10.35664443 4.55492932 9.50239613
Si 6.51560767 15.42685305 10.94119088
Si 1.72851996 7.10343595 1.57420006
Si 6.33200978 8.35255864 16.81772882
Si 8.04357299 8.56638798 4.89737944
Si 13.68236920 14.26929314 9.07035584
Si 1.50153323 14.90690650 0.75539811
Si 14.27392217 10.46269358 11.78879544
Si 0.76785202 12.96455327 4.75801375
Si 4.21462780 16.63701120 14.65790859
Si 8.30421357 11.22823635 1.37036044
Si 4.11842024 1.76751177 10.00970054
Si 7.54287983 16.17159928 0.83169163
Si 11.69024952 7.71026408 1.32224816
Si 8.00646175 6.29859941 0.19214266
Si 14.49824249 4.35957896 1.51677825
Si 0.54236230 16.90771754 12.91689303
Si 16.83229686 4.02296720 14.41392232
Si 4.41666100 10.13690580 6.98365949
Si 15.56370648 13.28469156 14.54762491
Si 1.41539893 4.29343546 7.23605040
Si 0.35225037 16.76747294 8.14158959
Si 14.19798197 1.45250460 10.89481892
Si 10.48609018 16.01305986 4.98852067
Si 8.76379809 12.52843660 7.63381458
Si 6.40406066 2.07922169 1.89962910
Si 2.50628985 7.75774364 13.87461977
Si 3.36397048 9.23362698 3.13401032
Si 12.05841293 4.67976766 14.07089473
Si 3.06064907 8.65428694 5.56921105
Si 7.41274394 6.21159391 12.31502095
Si 10.63597925 9.13138165 14.27372202
Si 1.88186438 7.62165758 9.90579831
Si 5.00246703 5.11800259 3.76793155
Si 8.07132404 1.89962289 13.22543533
Si 14.84943529 6.19233127 10.29374744
Si 4.62338128 4.04950877 15.66678640
Si 14.11102349 0.38139345 -0.11744753
Si 3.02963235 17.01717896 4.60885546
Si 11.65659238 13.27740364 0.35389598
Si 6.07687104 10.12367180 11.17358058
Si 0.29532274 3.45387254 4.21072207
Li 16.61715339 8.27965912 6.88853908
Li 12.19910316 6.78634835 3.79373374
Li 12.55662095 7.28924316 15.56519698
Li 14.08072374 12.65227364 16.79036608
Li 10.06526038 8.25139031 3.37064303
Li 13.50534440 13.01503767 6.75549314
Li 15.42574572 2.75632085 16.49973212
Li 5.42998190 7.79793610 4.27797316
Li 1.98566252 14.75048115 3.25047546
Li 6.28161674 15.40689716 15.59235286
Li 2.20401505 17.04364836 10.46886126
Li 8.87023131 2.94233598 15.48887523
Li 16.56837780 5.62352602 5.75071876
Li 14.94045063 16.26961494 12.30744179
Li 7.04953892 6.06457448 5.54303016
Li 12.32038679 9.58296337 3.06899778
Li 2.38055754 16.72324625 16.39369595
Li 14.47332350 5.88429364 14.09629120
Li 12.23195656 7.24978941 12.90340227
Li 16.88147857 -0.06305215 0.05599605
Li 4.62754201 16.38990774 9.22730567
Li 17.06759393 7.32043123 3.77550591
Li 0.52069095 15.84256886 5.28138488
Li 15.35699966 10.74783246 15.53069044
Li 11.43138677 11.12080008 6.97985986
Li 5.65131055 3.69276389 5.88368292
Li 16.17201243 13.22239232 9.01615849
Li 16.31219717 8.43428719 9.51729585
Li 11.46331316 0.90553671 11.43124909
Li 7.82166761 4.43596077 10.20547680
Li 15.94579979 12.62246884 6.28153590
Li 13.33488945 1.03721062 13.48312735
Li 14.11116217 7.68383599 8.09190441
Li 1.92450681 7.00239014 7.15203952
Li 5.22421596 16.07381261 6.63205997
Li 12.61570695 3.11708281 9.45642897
Li 6.38248504 7.72321599 14.13182026
Li 2.97792058 12.08745436 3.82983098
Li 16.79587677 13.22129585 -0.18371596
Li 6.20090972 11.11258120 16.33605780
Li 0.88815539 10.38952538 5.78680213
Li 6.45215175 8.14708286 7.24476899
Li 9.03738292 16.56362808 11.89643395
Li 11.79776483 1.19919899 7.78536991
Li 4.49491916 2.26781111 3.67519704
Li 12.41092253 5.72140749 10.38223769
Li 8.99310797 16.62639877 2.93539973
Li 1.98402411 1.85932599 3.54533862
Li 16.24327758 3.07702968 6.66940975
Li 15.79357655 3.56012905 9.84661107
Li 4.34757177 16.77779763 11.98203280
Li 4.72733040 12.11968436 14.28326842
Li 8.53820793 8.85094486 12.30030349
Li 1.16986348 14.63942627 9.88124846
Li 11.71910378 6.30224236 7.79558641
Li 15.49938397 15.09160061 7.02069476
Li 3.54495795 13.20228528 1.48451553
Li 4.64103721 7.12290755 1.75801615
Li 16.78377877 6.11679381 8.37062591
Li 2.65705633 12.22167744 6.46618387
Li 3.95841064 3.76855514 7.95718765
Li 13.49003169 4.83127569 16.30667476
Li 2.59084045 1.45871822 13.35927753
Li 0.11342753 6.04223525 11.15112985
Li 6.62407404 1.12797643 11.09931520
Li 6.60357118 9.20945026 2.46695950
Li 12.71450272 12.14862172 10.38772793
Li 11.95213815 8.78283740 5.65516779
Li 10.39264304 11.21275321 9.59519748
Li 5.18273023 0.40556294 17.09088081
Li 7.22918044 6.58573100 2.85297994
Li 13.32536733 9.55663470 14.11704091
Li 5.24451993 1.93773747 13.72862708
Li 4.40806116 6.86894053 15.79767607
Li 7.29380431 16.91626204 8.83350775
Li 5.42011143 16.07991459 3.99234330
Li 12.58858968 4.27719797 3.26585742
Li 9.29073682 4.45415082 13.31489963
Li 8.57302932 13.77394757 9.92077159
Li 4.03126356 6.65709471 8.76632114
Li 9.34435804 12.27775528 16.30785198
Li 0.88239260 3.87894237 16.88068007
Li 10.78624364 2.08949206 13.69724807
Li 2.23231915 10.13622479 10.71232039
Li 13.41348468 9.73070333 -0.00310101
Li 15.10814895 13.15499776 3.65142645
Li 1.67072104 12.14807095 8.96510766
Li 5.06319314 5.45268967 10.79097885
Li 0.75341541 16.96029615 2.61057353
Li 8.92910622 6.94357890 14.35888162
Li 15.63557853 0.15519284 14.77902766
Li 16.67431234 11.07298843 13.23265120
Li 10.87073004 14.75134003 2.58410044
Li 10.44447312 0.56418935 15.86378468
Li 2.48110310 4.21661640 2.54670781
Li 5.26137992 14.45373046 13.20036110
Li 0.94660726 14.16872973 7.26122124
Li 13.89234176 4.08637864 11.85095779
Li 4.12329418 2.69873121 0.97270134
Li 9.44508488 1.00213423 6.52180742
Li 12.18988471 15.49466199 7.00363776
Li 12.77337777 16.66787412 9.52302149
Li 15.34237402 1.30998792 8.36152234
Li 6.29640531 12.85314058 10.82705675
Li 13.39560978 14.76440677 14.18479228
Li 9.42904988 11.57994842 13.85600541
Li 4.27659765 9.13868535 9.28818973
Li 5.32398807 15.09125913 1.52403904
Li 4.75947305 5.66783337 13.45836020
Li 14.92178900 3.90471586 4.42301247
Li 7.08544631 13.47712571 0.18968407
Li 6.23206134 2.70429704 8.94675650
Li 16.44499215 1.02885192 4.61162429
Li 10.90210923 3.50371424 7.11069201
Li 5.16949180 10.76341257 4.37443727
Li 1.86095445 9.59453380 8.08189806
Li 3.33048052 16.82469013 1.85540832
Li 8.22510683 13.99270373 12.45442186
Li 14.74298044 6.18100091 3.17530801
Li 6.42344831 7.56928863 10.01418808
Li 2.38143060 3.90725037 14.33196839
Li 4.48580112 11.81045111 9.24276588
Li 3.38197079 1.88832330 15.73662589
Li 0.53285629 8.72330022 12.19170130
Li 4.13192331 7.96966148 11.64803067
Li 10.28900049 13.18435280 5.42481338
Li 11.26681961 3.72031174 11.73657242
Li 7.62659025 10.54030141 9.03397090
Li 8.47177035 11.46258904 11.41790372
Li 9.24754207 2.24706157 11.02669063
Li 12.53886150 2.31536710 15.85856913
Li 7.44150982 1.25386798 4.10821371
Li 10.01845724 6.81866947 5.58455414
Li 14.91181397 8.89111111 2.94314093
Li 17.03215552 5.16985865 2.00312378
Li 16.76727715 10.88238517 10.62519382
Li 7.71056855 11.28132860 3.94507978
Li 6.48685806 14.21176490 8.28757501
Li 4.08495684 1.61510126 6.29628279
Li 6.94514607 10.77337001 6.37546164
Li 11.64566120 4.99983196 0.96151208
Li 8.85176660 6.12589302 7.85572880
Li 16.98038467 6.58039614 13.64061912
Li 1.25058779 12.80600001 14.59925626
Li 7.59553023 3.98081416 3.81430594
Li 11.73326595 11.23653564 15.50363515
Li 14.38316975 10.29906770 6.18941884
Li 4.45054929 6.32264249 6.19290038
Li 12.20193358 15.71784677 16.27990928
Li 2.44057617 5.82250203 12.21479713
Li 2.97676103 3.81145059 5.18951563
Li 15.98820713 5.65199202 16.48293533
Li 10.95039716 10.39109773 0.82263248
Li 6.47438854 3.76977812 12.33938246
Li 7.74106432 16.09867508 5.44944062
Li 6.69768593 16.70887597 13.34569975
Li 8.55178511 9.77916404 15.86953046
Li 7.08889419 5.07629169 14.96552560
Li 0.49380584 15.30020221 15.16063604
Li 15.31421508 0.52667675 2.19618571
Li 16.61275357 2.64986351 1.77217630
Li 2.69939265 16.53140252 7.22481567
Li 8.24983105 3.80007416 6.36015702
Li 12.98239102 5.19557074 5.71911131
Li 5.17633657 12.74918853 6.34494816
Li 9.67958809 5.87464018 2.45533281
Li 12.98547551 12.20712545 13.33470803
Li 8.84750461 15.38250560 14.46744034
Li 16.20464585 14.94307149 1.89496922
Li 3.26922332 5.24158644 0.34057101
Li 15.96282566 1.94966310 12.84907279
Li 1.76782860 1.99167180 8.72232226
Li 7.84602697 0.49869406 15.58943755
Li 12.68300480 14.28485764 4.58895464
Li 5.89902667 11.70718874 1.82472630
Li 10.45847910 12.17674024 2.74991075
Li 0.81244753 1.53347387 15.23616815
Li 3.88067168 14.23326360 10.94262074
Li 10.15578753 5.16269569 15.89181780
Li 11.47203863 1.66404913 5.09329981
Li 10.03279111 6.60480818 11.35346823
Li 15.51118514 16.11846403 9.72777288
Li 14.17596586 7.06446322 0.70759644
Li 13.00320838 2.14146785 1.64073600
Li 13.97025944 10.32863463 8.95273662
Li 0.37564029 9.06254039 14.85892246
Li 4.56833805 9.49215159 14.78389152
Li -0.03607022 14.42590789 12.56633594
Li 2.14624601 4.87426400 9.78973048
Li 16.57010188 8.44108800 0.53240553
Li 11.23784138 0.04555037 1.22159207
Li 3.39100826 14.45841122 5.38839847
Li 9.15688716 8.33649040 9.57159483
Li 2.30720113 10.51168027 13.56570681
Li 9.26254900 15.40352680 7.64323974
Li 7.57993700 13.44957684 5.41671480
Li 9.23771216 9.67940247 7.12551888
Li 0.57363593 10.78948440 16.77623464
Li 2.50224921 14.89054445 13.27258463
Li 13.10375668 11.79197907 2.01922388
Li 13.00295141 8.38408446 10.59135868
Li 12.68579468 14.97792243 11.66658512
Li 2.44154530 8.72862350 16.55807490
Li 1.37400385 1.57164585 6.15364112
Li 14.97830819 7.97629868 12.51615999
Li 8.32047104 3.86489123 1.28564787
Li 6.60401042 2.69812023 16.64551295
Li 2.67041262 6.43467103 4.10207116
Li 11.00718284 13.67124505 14.59319910
Li 12.55422032 16.65650275 3.36748109
Li 10.17499021 7.74605112 16.43641473
Li 10.73218968 15.07863192 10.01385159
Li 4.60280840 9.68522320 0.77892675
Li 11.20567010 13.41048410 8.04608055
Li 3.52433172 14.19947912 15.80951164
Li 9.57672390 14.78598157 0.10906866
Li 14.02567260 4.92887444 8.16183635
Li 8.77854446 2.52284271 8.51073644
Li 16.98622802 1.17191963 10.51543128
Li 0.93701169 3.47396617 11.82525187
Li 11.45908196 10.28968046 12.00102756
Li 14.98121663 15.13163068 16.47095326
Li 6.97534377 10.52554552 13.73201690
Li 9.90564056 2.24394228 3.00355650
Li 8.82233444 8.73007995 1.17019206
Li 5.80693597 4.78713223 1.09632722
Li 0.62548029 9.60342856 2.65368082
Li 0.76842060 12.62976535 2.13630809
Li 4.10482339 11.70550559 11.84020614
Li 1.44613107 6.19549886 15.77763589
Li 8.61061335 1.28550872 0.85279182
Li 13.99064681 0.07938932 6.42869872
Li 8.27389667 13.84357037 2.54856709
Li 10.12430193 10.45871522 4.72054576
Li 14.91044199 13.20215315 11.59324044
Li 13.55073449 14.41616817 2.00902525
Li 14.29955315 3.29905309 14.29994850
Li 16.10443183 10.89178466 4.17332270
Li 13.91923723 1.58009789 4.15178834
Li 2.46274964 10.88547289 1.49263343
