60

Li  6.73701 0.729944 12.0018
Li  6.73701 5.10447 6.00091
Li  1.68573 0.729944 0
Li  4.21983 2.90988 12.0018
Li  4.21983 0.744596 6.00091
Li  6.72009 2.90988 0
Li  1.70289 2.93374 3.57336
Li  4.19228 5.10537 15.5752
Li  1.6847 5.08962 9.57428
Li  1.70289 5.10537 14.4294
Li  4.19228 5.08962 2.42755
Li  1.6847 2.93374 8.42846
Li  1.84559 3.06405 0.80267
Li  4.04181 5.09864 12.8045
Li  1.69247 4.96603 6.80358
Li  1.84559 5.09864 17.2001
Li  4.04181 4.96603 5.19824
Li  1.69247 3.06405 11.1992
Li  6.75953 0.747779 9.29754
Li  6.71641 5.10614 3.29662
Li  1.68381 0.710441 15.2984
Li  6.75953 5.10614 8.70521
Li  6.71641 0.710441 14.7061
Li  1.68381 0.747779 2.70429
Li  6.91882 0.884101 6.72464
Li  6.559 5.10778 0.723722
Li  1.68192 0.572485 12.7256
Li  6.91882 5.10778 11.2781
Li  6.559 0.572485 17.279
Li  1.68192 0.884101 5.27719
Li  6.76271 2.93464 15.2939
Li  4.19124 2.92204 9.29294
Li  4.20579 0.707684 3.29202
Li  6.76271 2.92204 2.70889
Li  4.19124 0.707684 8.70981
Li  4.20579 2.93464 14.7107
Li  6.92991 3.07787 12.719
Li  4.02585 2.92361 6.7181
Li  4.20398 0.562881 0.717181
Li  6.92991 2.92361 5.28373
Li  4.02585 0.562881 11.2846
Li  4.20398 3.07787 17.2856
Si  1.58405 2.79663 16.1869
Si  4.3506 5.13956 10.186
Si  1.64522 5.19254 4.1851
Si  1.58405 5.13956 1.81581
Si  4.3506 5.19254 7.81673
Si  1.64522 2.79663 13.8176
Si  6.66572 0.671199 4.1748
Si  6.80484 5.10149 16.1766
Si  1.68918 0.791675 10.1757
Si  6.66572 5.10149 13.8279
Si  6.80484 0.791675 1.82611
Si  1.68918 0.671199 7.82703
Si  6.60348 2.83189 10.1777
Si  4.30989 2.88689 4.17674
Si  4.24638 0.845582 16.1786
Si  6.60348 2.88689 7.82509
Si  4.30989 0.845582 13.826
Si  4.24638 2.83189 1.82418
